Version 4
SHEET 1 1144 1364
WIRE 384 -400 0 -400
WIRE 608 -400 384 -400
WIRE 608 -368 608 -400
WIRE 0 -304 0 -400
WIRE 608 -256 608 -288
WIRE -80 -208 -128 -208
WIRE 0 -208 0 -224
WIRE 0 -208 -80 -208
WIRE 0 -176 0 -208
WIRE -80 -160 -80 -208
WIRE -80 -80 -80 -96
WIRE 0 -80 0 -96
WIRE 704 -48 464 -48
WIRE -176 0 -432 0
WIRE 512 16 224 16
WIRE 160 64 -256 64
WIRE 512 64 512 16
WIRE -256 112 -256 64
WIRE 992 128 672 128
WIRE 1088 128 992 128
WIRE 1088 144 1088 128
WIRE -384 160 -896 160
WIRE 224 160 224 112
WIRE 224 160 144 160
WIRE 384 160 384 -400
WIRE 512 160 512 144
WIRE 512 160 384 160
WIRE 512 176 512 160
WIRE 144 192 144 160
WIRE -256 208 -256 192
WIRE -128 208 -128 -208
WIRE -128 208 -256 208
WIRE 848 208 672 208
WIRE -256 224 -256 208
WIRE -384 240 -496 240
WIRE -896 256 -896 160
WIRE 848 272 848 208
WIRE 1088 272 1088 224
WIRE 512 304 512 256
WIRE 512 304 224 304
WIRE 464 336 464 -48
WIRE 704 336 704 -48
WIRE 704 336 464 336
WIRE -256 352 -256 304
WIRE 160 352 -256 352
WIRE -896 384 -896 336
WIRE -432 384 -432 0
WIRE -176 384 -176 0
WIRE -176 384 -432 384
WIRE -496 400 -496 240
WIRE 224 464 224 400
WIRE 224 464 144 464
WIRE 144 496 144 464
WIRE 496 832 256 832
WIRE 304 912 -432 912
WIRE 304 944 304 912
WIRE 784 1008 464 1008
WIRE 880 1008 784 1008
WIRE 880 1024 880 1008
WIRE -432 1040 -432 912
WIRE 304 1040 304 1024
WIRE 304 1040 -48 1040
WIRE 304 1056 304 1040
WIRE -48 1088 -48 1040
WIRE 640 1088 464 1088
WIRE 640 1152 640 1088
WIRE 880 1152 880 1104
WIRE -432 1168 -432 1120
WIRE 304 1184 304 1136
WIRE 304 1184 128 1184
WIRE -48 1200 -48 1168
WIRE 128 1216 128 1184
WIRE 256 1216 256 832
WIRE 496 1216 496 832
WIRE 496 1216 256 1216
WIRE 128 1344 128 1296
FLAG 144 192 0
FLAG 144 496 0
FLAG -496 400 0
FLAG -896 384 0
FLAG -80 -80 0
FLAG 0 -80 0
FLAG 848 272 0
FLAG 1088 272 0
FLAG 608 -256 0
FLAG 992 128 uout
FLAG 640 1152 0
FLAG 880 1152 0
FLAG 784 1008 uout1
FLAG -48 1200 0
FLAG -432 1168 0
FLAG 128 1344 0
SYMBOL npn 160 16 R0
SYMATTR InstName Q1
SYMATTR Value 2N2222
SYMBOL npn 160 304 R0
SYMATTR InstName Q2
SYMATTR Value 2N2222
SYMBOL ind2 -240 208 R180
WINDOW 0 36 80 Left 2
WINDOW 3 36 40 Left 2
SYMATTR InstName L1
SYMATTR Value 10µ
SYMATTR Type ind
SYMBOL ind2 -240 320 R180
WINDOW 0 36 80 Left 2
WINDOW 3 36 40 Left 2
SYMATTR InstName L2
SYMATTR Value 10µ
SYMATTR Type ind
SYMBOL ind2 -400 144 R0
SYMATTR InstName L3
SYMATTR Value 10µ
SYMATTR Type ind
SYMBOL Misc\\signal -896 240 R0
WINDOW 123 0 0 Left 0
WINDOW 39 24 132 Left 2
SYMATTR SpiceLine Rser=50
SYMATTR InstName V1
SYMATTR Value SINE(0 2 15Meg)
SYMBOL cap -96 -160 R0
SYMATTR InstName C1
SYMATTR Value 10µ
SYMBOL res -16 -192 R0
SYMATTR InstName R3
SYMATTR Value 120
SYMBOL res -16 -320 R0
SYMATTR InstName R4
SYMATTR Value 820
SYMBOL ind2 496 48 R0
SYMATTR InstName L4
SYMATTR Value 30µ
SYMATTR Type ind
SYMBOL ind2 496 160 R0
SYMATTR InstName L5
SYMATTR Value 30µ
SYMATTR Type ind
SYMBOL ind2 688 224 R180
WINDOW 0 36 80 Left 2
WINDOW 3 36 40 Left 2
SYMATTR InstName L6
SYMATTR Value 80µ
SYMATTR Type ind
SYMBOL res 1072 128 R0
SYMATTR InstName RL
SYMATTR Value 50
SYMBOL voltage 608 -384 R0
WINDOW 123 0 0 Left 0
WINDOW 39 0 0 Left 0
SYMATTR InstName V2
SYMATTR Value 12
SYMBOL ind2 288 928 R0
SYMATTR InstName L7
SYMATTR Value 15µ
SYMATTR Type ind
SYMBOL ind2 288 1040 R0
SYMATTR InstName L8
SYMATTR Value 15µ
SYMATTR Type ind
SYMBOL ind2 480 1104 R180
WINDOW 0 36 80 Left 2
WINDOW 3 36 40 Left 2
SYMATTR InstName L9
SYMATTR Value 80µ
SYMATTR Type ind
SYMBOL res 864 1008 R0
SYMATTR InstName RL1
SYMATTR Value 50
SYMBOL voltage -48 1072 R0
WINDOW 123 0 0 Left 0
WINDOW 39 0 0 Left 0
SYMATTR InstName V3
SYMATTR Value 12
SYMBOL Misc\\signal -432 1024 R0
WINDOW 123 0 0 Left 0
WINDOW 39 24 132 Left 2
SYMATTR SpiceLine Rser=7.2
SYMATTR InstName V4
SYMATTR Value SINE(0 12 15Meg)
SYMBOL Misc\\signal 128 1200 R0
WINDOW 123 0 0 Left 0
WINDOW 39 24 132 Left 2
SYMATTR SpiceLine Rser=7.2
SYMATTR InstName V5
SYMATTR Value SINE(0 12 15Meg 0 0 180)
TEXT -384 24 Left 2 !k1 l1 l2 l3 1
TEXT 512 -16 Left 2 !k2 l6 l4 l5 1
TEXT -560 -256 Left 2 !.tran 0 2u 1u
TEXT -560 -280 Left 2 ;.step param res list 120
TEXT 304 864 Left 2 !k3 l7 l8 l9 1
