Version 4
SHEET 1 1112 680
WIRE 288 -80 288 -128
WIRE 64 -32 64 -48
WIRE 224 -32 64 -32
WIRE 64 0 64 -32
WIRE -144 96 -320 96
WIRE 64 96 64 64
WIRE 64 96 -80 96
WIRE 288 96 288 16
WIRE 416 96 288 96
WIRE 608 96 480 96
WIRE -992 112 -992 48
WIRE 64 128 64 96
WIRE -320 144 -320 96
WIRE 288 176 288 96
WIRE 608 176 608 96
WIRE 960 176 736 176
WIRE 64 224 64 192
WIRE 224 224 64 224
WIRE -992 240 -992 192
WIRE 64 240 64 224
WIRE -320 256 -320 224
WIRE 864 256 736 256
WIRE 960 256 864 256
WIRE 608 288 608 256
WIRE 864 288 864 256
WIRE 64 352 64 320
WIRE 288 352 288 272
FLAG 864 288 0
FLAG -992 240 0
FLAG -320 256 0
FLAG 288 352 0
FLAG 288 -128 +12V
FLAG -992 48 +12V
FLAG 608 288 0
FLAG 64 -128 +12V
FLAG 64 352 0
SYMBOL ind2 592 160 R0
SYMATTR InstName L1
SYMATTR Value 8µ
SYMATTR Type ind
SYMBOL ind2 752 272 R180
WINDOW 0 36 80 Left 2
WINDOW 3 36 40 Left 2
SYMATTR InstName L2
SYMATTR Value 15µ
SYMATTR Type ind
SYMBOL res 944 160 R0
SYMATTR InstName R1
SYMATTR Value 50
SYMBOL cap -80 80 R90
WINDOW 0 0 32 VBottom 2
WINDOW 3 32 32 VTop 2
SYMATTR InstName C1
SYMATTR Value 10n
SYMBOL voltage -992 96 R0
WINDOW 123 0 0 Left 0
WINDOW 39 0 0 Left 0
SYMATTR InstName V1
SYMATTR Value 12
SYMBOL Misc\\signal -320 128 R0
WINDOW 123 0 0 Left 0
WINDOW 39 24 132 Left 2
SYMATTR SpiceLine Rser=50
SYMATTR InstName V2
SYMATTR Value SINE(0 5 15Meg)
SYMBOL npn 224 -80 R0
SYMATTR InstName Q1
SYMATTR Value BC547B
SYMBOL pnp 224 176 R0
SYMATTR InstName Q2
SYMATTR Value BC557B
SYMBOL diode 48 0 R0
SYMATTR InstName D1
SYMATTR Value 1N4007
SYMBOL diode 48 128 R0
SYMATTR InstName D2
SYMATTR Value 1N4007
SYMBOL res 48 -144 R0
SYMATTR InstName R2
SYMATTR Value 1k
SYMBOL res 48 224 R0
SYMATTR InstName R3
SYMATTR Value 1k
SYMBOL cap 480 80 R90
WINDOW 0 0 32 VBottom 2
WINDOW 3 32 32 VTop 2
SYMATTR InstName C2
SYMATTR Value 10n
TEXT 624 152 Left 2 !k1 l1 l2 1
TEXT -984 392 Left 2 !.tran 1u
