Version 4
SHEET 1 1564 680
WIRE 496 -240 352 -240
WIRE 896 -240 496 -240
WIRE 1008 -240 896 -240
WIRE 1296 -240 1008 -240
WIRE 352 -128 352 -240
WIRE 1296 -128 1296 -160
WIRE 496 -112 496 -240
WIRE 720 -112 624 -112
WIRE 896 -112 896 -240
WIRE 1008 -112 1008 -240
WIRE 1104 -112 1072 -112
WIRE 1008 -16 1008 -32
WIRE 1072 -16 1072 -112
WIRE 1072 -16 1008 -16
WIRE 1104 -16 1104 -32
WIRE 1376 -16 1104 -16
WIRE 496 0 496 -32
WIRE 624 0 624 -32
WIRE 1008 0 1008 -16
WIRE 1376 32 1376 -16
WIRE 272 48 48 48
WIRE 352 48 352 -48
WIRE 352 48 336 48
WIRE 432 48 352 48
WIRE 720 48 720 -112
WIRE 768 48 720 48
WIRE 896 48 896 -32
WIRE 896 48 832 48
WIRE 944 48 896 48
WIRE 48 112 48 48
WIRE 896 144 896 48
WIRE 48 272 48 192
WIRE 496 272 496 96
WIRE 896 272 896 224
WIRE 1008 272 1008 96
WIRE 1376 272 1376 112
FLAG 48 272 0
FLAG 496 272 0
FLAG 624 0 0
FLAG 896 272 0
FLAG 1008 272 0
FLAG 1376 272 0
FLAG 1296 -128 0
SYMBOL Misc\\signal 48 96 R0
WINDOW 123 0 0 Left 0
WINDOW 39 24 132 Left 2
SYMATTR SpiceLine Rser=50
SYMATTR InstName V1
SYMATTR Value SINE(0 1 14Meg)
SYMBOL cap 336 32 R90
WINDOW 0 0 32 VBottom 2
WINDOW 3 32 32 VTop 2
SYMATTR InstName C1
SYMATTR Value 100n
SYMBOL res 336 -144 R0
SYMATTR InstName R1
SYMATTR Value 56k
SYMBOL npn 432 0 R0
SYMATTR InstName Q1
SYMATTR Value 2N3904
SYMBOL ind2 480 -128 R0
WINDOW 3 26 104 Left 2
SYMATTR Value 2100µ
SYMATTR InstName L1
SYMATTR Type ind
SYMBOL ind2 640 -16 R180
WINDOW 0 36 80 Left 2
WINDOW 3 36 40 Left 2
SYMATTR InstName L2
SYMATTR Value 700µ
SYMATTR Type ind
SYMBOL cap 832 32 R90
WINDOW 0 0 32 VBottom 2
WINDOW 3 32 32 VTop 2
SYMATTR InstName C2
SYMATTR Value 100n
SYMBOL res 880 -128 R0
SYMATTR InstName R2
SYMATTR Value 1k
SYMBOL res 880 128 R0
SYMATTR InstName R3
SYMATTR Value 110
SYMBOL npn 944 0 R0
SYMATTR InstName Q2
SYMATTR Value 2N4401
SYMBOL ind2 992 -128 R0
SYMATTR InstName L3
SYMATTR Value 700µ
SYMATTR Type ind
SYMBOL ind2 1088 -128 R0
SYMATTR InstName L4
SYMATTR Value 100µ
SYMATTR Type ind
SYMBOL res 1360 16 R0
SYMATTR InstName R4
SYMATTR Value 50
SYMBOL voltage 1296 -256 R0
WINDOW 123 0 0 Left 0
WINDOW 39 0 0 Left 0
SYMATTR InstName V2
SYMATTR Value 12
TEXT 512 -136 Left 2 !k1 l1 l2 1
TEXT 1024 -136 Left 2 !k2 l3 l4 1
TEXT 216 336 Left 2 !.tran 10u
