Version 4
SHEET 1 880 680
WIRE 432 -16 -48 -16
WIRE 256 16 96 16
WIRE -48 48 -48 -16
WIRE 96 64 96 16
WIRE 432 80 432 -16
WIRE -48 160 -48 128
WIRE 96 160 96 144
WIRE 256 176 256 16
WIRE 432 192 432 160
WIRE 736 192 432 192
WIRE 432 208 432 192
WIRE 736 240 736 192
WIRE 256 288 256 256
WIRE 256 288 96 288
WIRE 384 288 256 288
WIRE 96 320 96 288
WIRE 432 352 432 304
WIRE 736 352 736 320
WIRE 96 432 96 400
FLAG -48 160 0
FLAG 96 432 0
FLAG 432 352 0
FLAG 736 352 0
FLAG 96 160 0
SYMBOL voltage -48 32 R0
WINDOW 123 0 0 Left 0
WINDOW 39 0 0 Left 0
SYMATTR InstName V1
SYMATTR Value 12
SYMBOL nmos 384 208 R0
SYMATTR InstName M1
SYMATTR Value IRFZ44N
SYMBOL Misc\\signal 96 304 R0
WINDOW 123 0 0 Left 0
WINDOW 39 24 132 Left 2
SYMATTR SpiceLine Rser=50
SYMATTR InstName V2
SYMATTR Value SINE(0 4 30Meg)
SYMBOL ind 416 64 R0
SYMATTR InstName L1
SYMATTR Value 56µ
SYMBOL res 720 224 R0
SYMATTR InstName Rl
SYMATTR Value 15
SYMBOL ind 240 160 R0
SYMATTR InstName L2
SYMATTR Value 10µ
SYMBOL voltage 96 48 R0
WINDOW 123 0 0 Left 0
WINDOW 39 0 0 Left 0
SYMATTR InstName V3
SYMATTR Value 0
TEXT 624 64 Left 2 ;P: 5W\nRL: 16.62 Ohm\nL1: 52.89 uH
TEXT -80 456 Left 2 !.tran 100n
