Version 4
SHEET 1 880 680
SYMBOL npn 144 112 R0
SYMATTR InstName Q1
SYMATTR Value 2SC4097
SYMBOL pnp 144 272 R0
SYMATTR InstName Q2
SYMATTR Value 2SA2088U3
