Version 4
SHEET 1 1300 680
WIRE -288 -32 -288 -64
WIRE 272 0 192 0
WIRE 400 0 352 0
WIRE 864 0 816 0
WIRE 1040 0 944 0
WIRE 160 16 160 -16
WIRE 720 32 720 0
WIRE -288 80 -288 48
WIRE 256 128 256 96
WIRE -48 144 -144 144
WIRE 32 144 16 144
WIRE 192 144 192 0
WIRE 192 144 112 144
WIRE 224 144 192 144
WIRE 896 144 896 112
WIRE 400 160 400 0
WIRE 400 160 288 160
WIRE 432 160 400 160
WIRE 608 160 496 160
WIRE 816 160 816 0
WIRE 816 160 688 160
WIRE 864 160 816 160
WIRE 160 176 160 96
WIRE 224 176 160 176
WIRE 1040 176 1040 0
WIRE 1040 176 928 176
WIRE 1088 176 1088 128
WIRE 1088 176 1040 176
WIRE 1120 176 1088 176
WIRE 1232 176 1232 128
WIRE 1232 176 1184 176
WIRE 1248 176 1232 176
WIRE 720 192 720 112
WIRE 864 192 720 192
WIRE 1248 192 1248 176
WIRE -144 208 -144 144
WIRE 160 224 160 176
WIRE 256 224 256 192
WIRE 720 240 720 192
WIRE 896 240 896 208
WIRE 1248 304 1248 272
WIRE -144 320 -144 288
WIRE 160 336 160 304
WIRE 720 352 720 320
FLAG 256 224 0
FLAG 896 240 0
FLAG 160 336 0
FLAG -288 80 0
FLAG -288 -64 Vcc
FLAG 160 -16 Vcc
FLAG 256 96 Vcc
FLAG 896 112 Vcc
FLAG -144 320 0
FLAG 1248 304 0
FLAG 720 352 0
FLAG 720 0 Vcc
SYMBOL cap 16 128 R90
WINDOW 0 0 32 VBottom 2
WINDOW 3 32 32 VTop 2
SYMATTR InstName C1
SYMATTR Value 10µ
SYMBOL res 128 128 R90
WINDOW 0 0 56 VBottom 2
WINDOW 3 32 56 VTop 2
SYMATTR InstName R1
SYMATTR Value 47
SYMBOL OpAmps\\AD8030 256 96 R0
SYMATTR InstName U1
SYMBOL OpAmps\\AD8030 896 112 R0
SYMATTR InstName U2
SYMBOL res 144 0 R0
SYMATTR InstName R2
SYMATTR Value 10k
SYMBOL res 144 208 R0
SYMATTR InstName R3
SYMATTR Value 10k
SYMBOL voltage -288 -48 R0
WINDOW 123 0 0 Left 0
WINDOW 39 0 0 Left 0
SYMATTR InstName V1
SYMATTR Value 12
SYMBOL res 368 -16 R90
WINDOW 0 0 56 VBottom 2
WINDOW 3 32 56 VTop 2
SYMATTR InstName R4pot
SYMATTR Value 10k
SYMBOL Misc\\signal -144 192 R0
WINDOW 123 0 0 Left 0
WINDOW 39 24 132 Left 2
SYMATTR InstName V2
SYMATTR Value SINE(0 1m 2K)
SYMATTR SpiceLine Rser=50
SYMBOL cap 496 144 R90
WINDOW 0 0 32 VBottom 2
WINDOW 3 32 32 VTop 2
SYMATTR InstName C2
SYMATTR Value 10µ
SYMBOL res 1232 176 R0
SYMATTR InstName RL
SYMATTR Value 4
SYMBOL res 704 144 R90
WINDOW 0 0 56 VBottom 2
WINDOW 3 32 56 VTop 2
SYMATTR InstName R4
SYMATTR Value 1k
SYMBOL res 960 -16 R90
WINDOW 0 0 56 VBottom 2
WINDOW 3 32 56 VTop 2
SYMATTR InstName R5
SYMATTR Value 10k
SYMBOL res 704 16 R0
SYMATTR InstName R6
SYMATTR Value 10k
SYMBOL res 704 224 R0
SYMATTR InstName R7
SYMATTR Value 10k
SYMBOL cap 1184 160 R90
WINDOW 0 0 32 VBottom 2
WINDOW 3 32 32 VTop 2
SYMATTR InstName C3
SYMATTR Value 10µ
TEXT -320 360 Left 2 !.tran 2m
